 &nam_stochy
  DELTIM=900,
  lonb=1152, latb=576,
  ntrunc=574,
  SHUM=0.0, -999., -999., -999, -999,SHUM_TAU=2.16E4, 1.728E5, 6.912E5, 7.776E6, 3.1536E7,SHUM_LSCALE=500.E3, 1000.E3, 2000.E3, 2000.E3, 2000.E3,ISEED_SHUM=6,7,8,9,0,
  SPPT=0.8, -999., -999., -999, -999,SPPT_TAU=21600,2592500,25925000,7776000,31536000,SPPT_LSCALE=500000,1000000,2000000,2000000,2000000,ISEED_SPPT=6,7,8,9,0,
  SKEB=0.0, -999, -999, -999, -999,SKEB_TAU=2.164E4, 1.728E5, 2.592E6, 7.776E6, 3.1536E7,SKEB_LSCALE=1000.E3, 1000.E3, 2000.E3, 2000.E3, 2000.E3,SKEB_VFILT=40,SKEB_DISS_SMOOTH=12,ISEED_SKEB=11,12,13,14,15,
  VC=0.0,VC_TAU=4.32E4, 1.728E5, 2.592E6, 7.776E6, 3.1536E7,VC_LSCALE=1000.E3, 1000.E3, 2000.E3, 2000.E3, 2000.E3,VCAMP=0.0, -999., -999., -999, -999,ISEED_VC=16,17,18,19,20,
  /
